[TITLE]
Benalua								

[JUNCTIONS]
;ID              	Elev        	Demand      	Pattern         
 133487X         	17.33       	0           	1_Patter_February_2018	;				
 133487Y         	17.33       	0           	1_Patter_February_2018	;				
 133490X         	15.91       	0           	1_Patter_February_2018	;				
 133490Y         	15.91       	0           	1_Patter_February_2018	;				
 133491X         	15.91       	0.011239012 	1_Patter_February_2018	;				
 133491Y         	15.91       	0           	1_Patter_February_2018	;				
 133492X         	17.8        	0.020147985 	1_Patter_February_2018	;				
 133492Y         	17.8        	0           	1_Patter_February_2018	;				
 133493X         	16.38       	0           	1_Patter_February_2018	;				
 133493Y         	16.38       	0           	1_Patter_February_2018	;				
 133495X         	17.31       	0.005619506 	1_Patter_February_2018	;				
 133495Y         	17.31       	0           	1_Patter_February_2018	;				
 133496X         	17.34       	0           	1_Patter_February_2018	;				
 133496Y         	17.34       	0           	1_Patter_February_2018	;				
 133504X         	16.65       	0.009594279 	1_Patter_February_2018	;				
 133504Y         	16.65       	0           	1_Patter_February_2018	;				
 133619X         	19.02       	0           	1_Patter_February_2018	;				
 133619Y         	19.02       	0           	1_Patter_February_2018	;				
 133620X         	19.16       	0           	1_Patter_February_2018	;				
 133620Y         	19.16       	0           	1_Patter_February_2018	;				
 133621X         	19.12       	0           	1_Patter_February_2018	;				
 133621Y         	19.12       	0.031661119 	1_Patter_February_2018	;				
 133622X         	19.7        	0           	1_Patter_February_2018	;				
 133622Y         	19.7        	0           	1_Patter_February_2018	;				
 133624X         	18.4        	0.046600782 	1_Patter_February_2018	;				
 133624Y         	18.4        	0           	1_Patter_February_2018	;				
 133625X         	18.5        	0           	1_Patter_February_2018	;				
 133625Y         	18.5        	0           	1_Patter_February_2018	;				
 133626X         	19.08       	0           	1_Patter_February_2018	;				
 133626Y         	19.08       	0           	1_Patter_February_2018	;				
 133627X         	20.09       	0           	1_Patter_February_2018	;				
 133627Y         	20.09       	0           	1_Patter_February_2018	;				
 133628X         	19.78       	0           	1_Patter_February_2018	;				
 133628Y         	19.78       	0           	1_Patter_February_2018	;				
 133630X         	18.63       	0           	1_Patter_February_2018	;				
 133630Y         	18.63       	0           	1_Patter_February_2018	;				
 133631X         	18.4        	0           	1_Patter_February_2018	;				
 133631Y         	18.4        	0           	1_Patter_February_2018	;				
 133632X         	17.72       	0           	1_Patter_February_2018	;				
 133632Y         	17.72       	0           	1_Patter_February_2018	;				
 133633X         	19.52       	0.025904552 	1_Patter_February_2018	;				
 133633Y         	19.52       	0           	1_Patter_February_2018	;				
 133634X         	19.09       	0           	1_Patter_February_2018	;				
 133634Y         	19.09       	0           	1_Patter_February_2018	;				
 133635X         	18.49       	0           	1_Patter_February_2018	;				
 133635Y         	18.49       	0           	1_Patter_February_2018	;				
 133636X         	18.86       	0           	1_Patter_February_2018	;				
 133636Y         	18.86       	0           	1_Patter_February_2018	;				
 133637X         	18.48       	0.070723539 	1_Patter_February_2018	;				
 133637Y         	18.48       	0           	1_Patter_February_2018	;				
 133638X         	17.62       	0           	1_Patter_February_2018	;				
 133638Y         	17.62       	0           	1_Patter_February_2018	;				
 133639X         	18.7        	0           	1_Patter_February_2018	;				
 133639Y         	18.7        	0           	1_Patter_February_2018	;				
 133640X         	18.64       	0           	1_Patter_February_2018	;				
 133640Y         	18.64       	0           	1_Patter_February_2018	;				
 133641X         	17.33       	0           	1_Patter_February_2018	;				
 133641Y         	17.33       	0           	1_Patter_February_2018	;				
 133642X         	16.74       	0.106633554 	1_Patter_February_2018	;				
 133642Y         	16.74       	0           	1_Patter_February_2018	;				
 133643X         	16.36       	0           	1_Patter_February_2018	;				
 133643Y         	16.36       	0           	1_Patter_February_2018	;				
 133644X         	17.31       	0.03906242  	1_Patter_February_2018	;				
 133644Y         	17.31       	0           	1_Patter_February_2018	;				
 133645X         	17.07       	0           	1_Patter_February_2018	;				
 133645Y         	17.07       	0           	1_Patter_February_2018	;				
 133647X         	16.21       	0.006030689 	1_Patter_February_2018	;				
 133647Y         	16.21       	0           	1_Patter_February_2018	;				
 133648X         	16.63       	0           	1_Patter_February_2018	;				
 133648Y         	16.63       	0           	1_Patter_February_2018	;				
 133649X         	16.55       	0           	1_Patter_February_2018	;				
 133649Y         	16.55       	0           	1_Patter_February_2018	;				
 133654X         	16.92       	0           	1_Patter_February_2018	;				
 133654Y         	16.92       	0.025356308 	1_Patter_February_2018	;				
 133655X         	17.12       	0           	1_Patter_February_2018	;				
 133655Y         	17.12       	0           	1_Patter_February_2018	;				
 133656X         	17.12       	0.028645775 	1_Patter_February_2018	;				
 133656Y         	17.12       	0           	1_Patter_February_2018	;				
 133657X         	16.46       	0           	1_Patter_February_2018	;				
 133657Y         	16.46       	0           	1_Patter_February_2018	;				
 133665X         	16.46       	0           	1_Patter_February_2018	;				
 133665Y         	16.46       	0           	1_Patter_February_2018	;				
 133666X         	17.67       	0           	1_Patter_February_2018	;				
 133666Y         	17.67       	0           	1_Patter_February_2018	;				
 133768X         	17.67       	0.024808063 	1_Patter_February_2018	;				
 133768Y         	17.67       	0           	1_Patter_February_2018	;				
 134834X         	15.69       	0           	1_Patter_February_2018	;				
 134834Y         	15.69       	0           	1_Patter_February_2018	;				
 134837X         	16.78       	0           	1_Patter_February_2018	;				
 134837Y         	16.78       	0           	1_Patter_February_2018	;				
 134838X         	15.15       	0           	1_Patter_February_2018	;				
 134838Y         	15.15       	0.091693891 	1_Patter_February_2018	;				
 135906X         	19.19       	0           	1_Patter_February_2018	;				
 135906Y         	19.19       	0           	1_Patter_February_2018	;				
 135964X         	16.5        	0           	1_Patter_February_2018	;				
 135964Y         	16.5        	0.010416645 	1_Patter_February_2018	;				
 135996Y         	16.13       	0           	1_Patter_February_2018	;				
 136000X         	15.24       	0           	1_Patter_February_2018	;				
 136000Y         	15.24       	0           	1_Patter_February_2018	;				
 136106X         	20.59       	0           	1_Patter_February_2018	;				
 136106Y         	20.59       	0           	1_Patter_February_2018	;				
 136266X         	16.06       	0           	1_Patter_February_2018	;				
 136266Y         	16.06       	0           	1_Patter_February_2018	;				
 136312X         	8.85        	0.187225494 	1_Patter_February_2018	;				
 136312Y         	8.85        	0           	1_Patter_February_2018	;				
 136323X         	7.71        	0           	1_Patter_February_2018	;				
 136323Y         	7.71        	0           	1_Patter_February_2018	;				
 136325X         	7.84        	0           	1_Patter_February_2018	;				
 136325Y         	7.84        	0           	1_Patter_February_2018	;				
 136482X         	17.36       	0           	1_Patter_February_2018	;				
 136482Y         	17.36       	0           	1_Patter_February_2018	;				
 136483X         	17.5        	0           	1_Patter_February_2018	;				
 136483Y         	17.5        	0           	1_Patter_February_2018	;				
 136502X         	8.46        	0           	1_Patter_February_2018	;				
 136502Y         	8.46        	0           	1_Patter_February_2018	;				
 136510X         	7.71        	0           	1_Patter_February_2018	;				
 136510Y         	7.71        	0           	1_Patter_February_2018	;				
 136513X         	8.56        	0           	1_Patter_February_2018	;				
 136513Y         	8.56        	0           	1_Patter_February_2018	;				
 136515X         	7.72        	0           	1_Patter_February_2018	;				
 136515Y         	7.72        	0           	1_Patter_February_2018	;				
 136662X         	16.38       	0           	1_Patter_February_2018	;				
 136662Y         	16.38       	0.059895711 	1_Patter_February_2018	;				
 137293X         	16.44       	0           	1_Patter_February_2018	;				
 137293Y         	16.44       	0.147066585 	1_Patter_February_2018	;				
 139133X         	14.86       	0           	1_Patter_February_2018	;				
 139133Y         	14.86       	0           	1_Patter_February_2018	;				
 140834X         	16.44       	0           	1_Patter_February_2018	;				
 140834Y         	16.44       	0           	1_Patter_February_2018	;				
 140871X         	13.62       	0           	1_Patter_February_2018	;
 140911X         	16.43       	0           	1_Patter_February_2018	;				
 140911Y         	16.43       	0           	1_Patter_February_2018	;				
 140919X         	16.33       	0.018777374 	1_Patter_February_2018	;				
 140919Y         	16.33       	0           	1_Patter_February_2018	;				
 140924X         	16.87       	0           	1_Patter_February_2018	;				
 140924Y         	16.87       	0           	1_Patter_February_2018	;				
 140946X         	15.42       	0           	1_Patter_February_2018	;				
 140946Y         	15.42       	0           	1_Patter_February_2018	;				
 140977X         	15.45       	0           	1_Patter_February_2018	;				
 140977Y         	15.45       	0           	1_Patter_February_2018	;				
 140978X         	14          	0           	1_Patter_February_2018	;				
 140978Y         	14          	0           	1_Patter_February_2018	;				
 141026X         	13.9        	0           	1_Patter_February_2018	;				
 141026Y         	13.9        	0           	1_Patter_February_2018	;				
 141091X         	12.24       	0.087033813 	1_Patter_February_2018	;				
 141091Y         	12.24       	0           	1_Patter_February_2018	;				
 141142X         	12.6        	0           	1_Patter_February_2018	;				
 141142Y         	12.6        	0           	1_Patter_February_2018	;				
 141149X         	12.14       	0           	1_Patter_February_2018	;				
 141149Y         	12.14       	0           	1_Patter_February_2018	;				
 141163X         	10.18       	0.158990902 	1_Patter_February_2018	;				
 141163Y         	10.18       	0           	1_Patter_February_2018	;				
 141199X         	15.3        	0           	1_Patter_February_2018	;				
 141199Y         	15.3        	0           	1_Patter_February_2018	;				
 141210X         	16.39       	0           	1_Patter_February_2018	;				
 141210Y         	16.39       	0.002055917 	1_Patter_February_2018	;				
 141220X         	8.9         	0           	1_Patter_February_2018	;				
 141220Y         	8.9         	0           	1_Patter_February_2018	;				
 141223X         	9.11        	0           	1_Patter_February_2018	;				
 141223Y         	9.11        	0           	1_Patter_February_2018	;				
 141230X         	8.93        	0           	1_Patter_February_2018	;				
 141230Y         	8.93        	0           	1_Patter_February_2018	;				
 141248X         	15.72       	0           	1_Patter_February_2018	;				
 141248Y         	15.72       	0           	1_Patter_February_2018	;				
 141259X         	13.21       	0           	1_Patter_February_2018	;				
 141259Y         	13.21       	0           	1_Patter_February_2018	;				
 141265X         	15.44       	0           	1_Patter_February_2018	;				
 141265Y         	15.44       	0           	1_Patter_February_2018	;				
 141429X         	15.77       	0           	1_Patter_February_2018	;				
 141429Y         	15.77       	0           	1_Patter_February_2018	;				
 141566X         	15.61       	0           	1_Patter_February_2018	;				
 141566Y         	15.61       	0           	1_Patter_February_2018	;				
 141670X         	12.88       	0           	1_Patter_February_2018	;				
 141670Y         	12.88       	0           	1_Patter_February_2018	;				
 141698X         	19.19       	0           	1_Patter_February_2018	;				
 141698Y         	19.19       	0.040021848 	1_Patter_February_2018	;				
 141701X         	19.25       	0           	1_Patter_February_2018	;				
 141701Y         	19.25       	0           	1_Patter_February_2018	;				
 141707X         	17.41       	0           	1_Patter_February_2018	;				
 141707Y         	17.41       	0           	1_Patter_February_2018	;				
 141708X         	17.75       	0           	1_Patter_February_2018	;				
 141708Y         	17.75       	0           	1_Patter_February_2018	;				
 141723X         	21.09       	0           	1_Patter_February_2018	;				
 141723Y         	21.09       	0           	1_Patter_February_2018	;				
 141726X         	20.78       	0           	1_Patter_February_2018	;				
 141726Y         	20.78       	0           	1_Patter_February_2018	;				
 141734X         	20.75       	0           	1_Patter_February_2018	;				
 141734Y         	20.75       	0           	1_Patter_February_2018	;				
 141759X         	20.67       	0           	1_Patter_February_2018	;				
 141759Y         	20.67       	0           	1_Patter_February_2018	;				
 141777X         	19.82       	0           	1_Patter_February_2018	;				
 141777Y         	19.82       	0.025904552 	1_Patter_February_2018	;				
 141783X         	20.74       	0           	1_Patter_February_2018	;				
 141783Y         	20.74       	0.006715995 	1_Patter_February_2018	;				
 141810X         	17.88       	0           	1_Patter_February_2018	;				
 141810Y         	17.88       	0           	1_Patter_February_2018	;				
 141815X         	19.27       	0.000411183 	1_Patter_February_2018	;				
 141815Y         	19.27       	0           	1_Patter_February_2018	;				
 141817X         	19.19       	0           	1_Patter_February_2018	;				
 141817Y         	19.19       	0           	1_Patter_February_2018	;				
 141871X         	8.83        	0           	1_Patter_February_2018	;				
 141871Y         	8.83        	0.030838753 	1_Patter_February_2018	;				
 141884X         	8.83        	0           	1_Patter_February_2018	;				
 141884Y         	8.83        	0           	1_Patter_February_2018	;				
 142202X         	11.12       	0.087993241 	1_Patter_February_2018	;				
 142202Y         	11.12       	0           	1_Patter_February_2018	;				
 142440X         	11.23       	0           	1_Patter_February_2018	;				
 142440Y         	11.23       	0.050575554 	1_Patter_February_2018	;				
 142442X         	10.98       	0           	1_Patter_February_2018	;				
 142442Y         	10.98       	0           	1_Patter_February_2018	;				
 142785X         	19.79       	0           	1_Patter_February_2018	;				
 142785Y         	19.79       	0.052220288 	1_Patter_February_2018	;				
 142790X         	19.5        	0           	1_Patter_February_2018	;				
 142790Y         	19.5        	0.032072303 	1_Patter_February_2018	;				
 142901X         	19.76       	0           	1_Patter_February_2018	;				
 142901Y         	19.76       	0           	1_Patter_February_2018	;				
 142905X         	19.7        	0.016995579 	1_Patter_February_2018	;				
 142905Y         	19.7        	0           	1_Patter_February_2018	;				
 143123X         	19.53       	0           	1_Patter_February_2018	;				
 143123Y         	19.53       	0           	1_Patter_February_2018	;				
 143148X         	22.96       	0           	1_Patter_February_2018	;				
 143148Y         	22.96       	0           	1_Patter_February_2018	;				
 143149Y         	22.71       	0           	1_Patter_February_2018	;				
 143162X         	22.69       	0.084155529 	1_Patter_February_2018	;				
 143162Y         	22.69       	0           	1_Patter_February_2018	;				
 143163X         	22.81       	0           	1_Patter_February_2018	;				
 143266X         	18.43       	0           	1_Patter_February_2018	;				
 143266Y         	18.43       	0           	1_Patter_February_2018	;				
 143272X         	17.31       	0           	1_Patter_February_2018	;				
 143272Y         	17.31       	0           	1_Patter_February_2018	;				
 143297X         	14.38       	0           	1_Patter_February_2018	;				
 143297Y         	14.38       	0           	1_Patter_February_2018	;				
 143302X         	15.31       	0           	1_Patter_February_2018	;				
 143302Y         	15.31       	0           	1_Patter_February_2018	;				
 143306X         	15.31       	0.052357349 	1_Patter_February_2018	;				
 143306Y         	15.31       	0           	1_Patter_February_2018	;				
 143351X         	14.95       	0.020970352 	1_Patter_February_2018	;				
 143351Y         	14.95       	0           	1_Patter_February_2018	;				
 143356X         	14.95       	0           	1_Patter_February_2018	;				
 143356Y         	14.95       	0           	1_Patter_February_2018	;				
 143358X         	21.59       	0           	1_Patter_February_2018	;				
 143358Y         	21.59       	0           	1_Patter_February_2018	;				
 143382X         	21.28       	0           	1_Patter_February_2018	;				
 143382Y         	21.28       	0           	1_Patter_February_2018	;				
 143398X         	16.25       	0           	1_Patter_February_2018	;				
 143398Y         	16.25       	0           	1_Patter_February_2018	;				
 143444X         	17.82       	0           	1_Patter_February_2018	;				
 143444Y         	17.82       	0           	1_Patter_February_2018	;				
 143461X         	18.66       	0           	1_Patter_February_2018	;				
 143461Y         	18.66       	0           	1_Patter_February_2018	;				
 143463X         	17.82       	0           	1_Patter_February_2018	;				
 143463Y         	17.82       	0           	1_Patter_February_2018	;				
 143486X         	18          	0           	1_Patter_February_2018	;				
 143486Y         	18          	0           	1_Patter_February_2018	;				
 143491X         	18          	0.037554748 	1_Patter_February_2018	;				
 143491Y         	18          	0           	1_Patter_February_2018	;				
 143494X         	18.88       	0           	1_Patter_February_2018	;				
 143494Y         	18.88       	0           	1_Patter_February_2018	;				
 144272X         	17.3        	0           	1_Patter_February_2018	;				
 144272Y         	17.3        	0           	1_Patter_February_2018	;				
 144401X         	14.74       	0           	1_Patter_February_2018	;				
 144401Y         	14.74       	0           	1_Patter_February_2018	;				
 144412X         	14.74       	0           	1_Patter_February_2018	;				
 144412Y         	14.74       	0           	1_Patter_February_2018	;				
 144444X         	10.78       	0           	1_Patter_February_2018	;				
 144444Y         	10.78       	0.038788298 	1_Patter_February_2018	;				
 144535X         	11.41       	0           	1_Patter_February_2018	;				
 144535Y         	11.41       	0           	1_Patter_February_2018	;				
 144957X         	16.75       	0.061951627 	1_Patter_February_2018	;				
 144957Y         	16.75       	0           	1_Patter_February_2018	;				
 144958X         	16.67       	0           	1_Patter_February_2018	;				
 144958Y         	16.67       	0           	1_Patter_February_2018	;				
 144959X         	16.58       	0           	1_Patter_February_2018	;				
 144959Y         	16.58       	0           	1_Patter_February_2018	;				
 144960X         	15.24       	0           	1_Patter_February_2018	;				
 144960Y         	15.24       	0.020285046 	1_Patter_February_2018	;				
 144961X         	14.74       	0           	1_Patter_February_2018	;				
 144961Y         	14.74       	0           	1_Patter_February_2018	;				
 144962X         	14.92       	0           	1_Patter_February_2018	;				
 144962Y         	14.92       	0           	1_Patter_February_2018	;				
 144963X         	16.99       	0           	1_Patter_February_2018	;				
 144963Y         	16.99       	0           	1_Patter_February_2018	;				
 144965X         	17.88       	0           	1_Patter_February_2018	;				
 144965Y         	17.88       	0           	1_Patter_February_2018	;				
 144966X         	15          	0           	1_Patter_February_2018	;				
 144966Y         	15          	0.051809104 	1_Patter_February_2018	;				
 144967X         	14.56       	0           	1_Patter_February_2018	;				
 144967Y         	14.56       	0           	1_Patter_February_2018	;				
 149012X         	15.72       	0           	1_Patter_February_2018	;				
 149012Y         	15.72       	0           	1_Patter_February_2018	;				
 152995X         	12.6        	0           	1_Patter_February_2018	;				
 152995Y         	12.6        	0.081551368 	1_Patter_February_2018	;				
 152996X         	12.29       	0           	1_Patter_February_2018	;				
 152996Y         	12.29       	0           	1_Patter_February_2018	;				
 152997X         	12.36       	0           	1_Patter_February_2018	;				
 152997Y         	12.36       	0           	1_Patter_February_2018	;				
 152998X         	12.19       	0           	1_Patter_February_2018	;				
 152998Y         	12.19       	0.063185178 	1_Patter_February_2018	;				
 152999X         	12.34       	0           	1_Patter_February_2018	;				
 152999Y         	12.34       	0           	1_Patter_February_2018	;				
 153000X         	12.34       	0           	1_Patter_February_2018	;				
 153000Y         	12.34       	0           	1_Patter_February_2018	;				
 155458X         	17.51       	0           	1_Patter_February_2018	;				
 155458Y         	17.51       	0           	1_Patter_February_2018	;				
 155459X         	16.52       	0           	1_Patter_February_2018	;				
 155459Y         	16.52       	0.093338625 	1_Patter_February_2018	;				
 155460X         	16.07       	0           	1_Patter_February_2018	;				
 155460Y         	16.07       	0           	1_Patter_February_2018	;				
 155862X         	15.07       	0           	1_Patter_February_2018	;				
 155862Y         	15.07       	0           	1_Patter_February_2018	;				
 161604X         	19.11       	0           	1_Patter_February_2018	;				
 161604Y         	19.11       	0           	1_Patter_February_2018	;				
 161605X         	19.07       	0           	1_Patter_February_2018	;				
 161605Y         	19.07       	0           	1_Patter_February_2018	;				
 164092X         	18.02       	0           	1_Patter_February_2018	;				
 164092Y         	18.02       	0           	1_Patter_February_2018	;				
 164093X         	17.01       	0           	1_Patter_February_2018	;				
 164093Y         	17.01       	0           	1_Patter_February_2018	;				
 164094X         	16.99       	0           	1_Patter_February_2018	;				
 164094Y         	16.99       	0           	1_Patter_February_2018	;				
 164095X         	17.2        	0           	1_Patter_February_2018	;				
 164095Y         	17.2        	0           	1_Patter_February_2018	;				
 164096X         	18.41       	0           	1_Patter_February_2018	;				
 164096Y         	18.41       	0           	1_Patter_February_2018	;				
 164097X         	15.9        	0           	1_Patter_February_2018	;				
 164097Y         	15.9        	0           	1_Patter_February_2018	;				
 164098X         	17.73       	0           	1_Patter_February_2018	;				
 164098Y         	17.73       	0           	1_Patter_February_2018	;				
 164099X         	17.68       	0           	1_Patter_February_2018	;				
 164099Y         	17.68       	0           	1_Patter_February_2018	;				
 164100X         	14.18       	0           	1_Patter_February_2018	;				
 164100Y         	14.18       	0           	1_Patter_February_2018	;				
 164101X         	14.07       	0.078810146 	1_Patter_February_2018	;				
 164101Y         	14.07       	0           	1_Patter_February_2018	;				
 164102X         	14.55       	0.057154488 	1_Patter_February_2018	;				
 164102Y         	14.55       	0           	1_Patter_February_2018	;				
 164103X         	14.43       	0.057154488 	1_Patter_February_2018	;				
 164103Y         	14.43       	0           	1_Patter_February_2018	;				
 164105X         	17.14       	0           	1_Patter_February_2018	;				
 164105Y         	17.14       	0           	1_Patter_February_2018	;				
 164139X         	17.83       	0           	1_Patter_February_2018	;				
 164139Y         	17.83       	0.130208067 	1_Patter_February_2018	;				
 164140X         	13.22       	0           	1_Patter_February_2018	;				
 164140Y         	13.22       	0           	1_Patter_February_2018	;				
 164470X         	19.46       	0           	1_Patter_February_2018	;				
 164470Y         	19.46       	0           	1_Patter_February_2018	;				
 164471X         	19.05       	0           	1_Patter_February_2018	;				
 164471Y         	19.05       	0           	1_Patter_February_2018	;				
 164472X         	19.21       	0           	1_Patter_February_2018	;				
 164472Y         	19.21       	0           	1_Patter_February_2018	;				
 164473X         	19.27       	0           	1_Patter_February_2018	;				
 164473Y         	19.27       	0           	1_Patter_February_2018	;				
 164474X         	19.43       	0.077713657 	1_Patter_February_2018	;				
 164474Y         	19.43       	0           	1_Patter_February_2018	;				
 164475X         	19.32       	0.027960469 	1_Patter_February_2018	;				
 164475Y         	19.32       	0           	1_Patter_February_2018	;				
 164476X         	19.28       	0           	1_Patter_February_2018	;				
 164476Y         	19.28       	0           	1_Patter_February_2018	;				
 164477X         	19.19       	0           	1_Patter_February_2018	;				
 164477Y         	19.19       	0           	1_Patter_February_2018	;				
 164478X         	15.85       	0           	1_Patter_February_2018	;				
 164478Y         	15.85       	0           	1_Patter_February_2018	;				
 164479X         	16.51       	0           	1_Patter_February_2018	;				
 164479Y         	16.51       	0           	1_Patter_February_2018	;				
 164480X         	17.86       	0           	1_Patter_February_2018	;				
 164480Y         	17.86       	0           	1_Patter_February_2018	;				
 164481X         	16.84       	0           	1_Patter_February_2018	;				
 164481Y         	16.84       	0.030975814 	1_Patter_February_2018	;				
 164482X         	13.63       	0.017680885 	1_Patter_February_2018	;				
 164482Y         	13.63       	0           	1_Patter_February_2018	;				
 168330X         	16.11       	0           	1_Patter_February_2018	;				
 168330Y         	16.11       	0           	1_Patter_February_2018	;				
 168331X         	16.47       	0           	1_Patter_February_2018	;				
 168331Y         	16.47       	0           	1_Patter_February_2018	;				
 168686X         	20.17       	0           	1_Patter_February_2018	;				
 168686Y         	20.17       	0           	1_Patter_February_2018	;				
 168727X         	20.19       	0.046189598 	1_Patter_February_2018	;				
 168727Y         	20.19       	0           	1_Patter_February_2018	;				
 168728X         	18.58       	0           	1_Patter_February_2018	;				
 168728Y         	18.58       	0           	1_Patter_February_2018	;				
 168729X         	18.89       	0.204358134 	1_Patter_February_2018	;				
 168729Y         	18.89       	0           	1_Patter_February_2018	;				
 168732X         	12.44       	0.12088791  	1_Patter_February_2018	;				
 168732Y         	12.44       	0           	1_Patter_February_2018	;				
 170031X         	15.56       	0           	1_Patter_February_2018	;				
 170031Y         	15.56       	0           	1_Patter_February_2018	;				
 170432X         	13.36       	0           	1_Patter_February_2018	;				
 170432Y         	13.36       	0           	1_Patter_February_2018	;				
 170433X         	13.36       	0           	1_Patter_February_2018	;				
 170433Y         	13.36       	0           	1_Patter_February_2018	;				
 170460X         	22.53       	0           	1_Patter_February_2018	;				
 170460Y         	22.53       	0           	1_Patter_February_2018	;				
 172100X         	15.81       	0           	1_Patter_February_2018	;				
 172100Y         	15.81       	0           	1_Patter_February_2018	;				
 196221X         	17.75       	0           	1_Patter_February_2018	;				
 196221Y         	17.75       	0           	1_Patter_February_2018	;				
 199023X         	17.76       	0           	1_Patter_February_2018	;				
 199023Y         	17.76       	0           	1_Patter_February_2018	;				
 199024X         	17.76       	0           	1_Patter_February_2018	;				
 199024Y         	17.76       	0           	1_Patter_February_2018	;				
 224691X         	17.09       	0           	1_Patter_February_2018	;				
 224691Y         	17.09       	0           	1_Patter_February_2018	;				
 239124X         	17.58       	0           	1_Patter_February_2018	;				
 239124Y         	17.58       	0           	1_Patter_February_2018	;				